71463466
  -OEChem-12292018073D

 70 72  0     1  0  0  0  0  0999 V2000
   -5.9933   -2.5518    0.3268 O   0  0  0  0  0  0  0  0  0  0  0  0
   -6.3022    1.3445   -1.4513 O   0  0  0  0  0  0  0  0  0  0  0  0
    9.2288    0.3532    0.1493 O   0  0  0  0  0  0  0  0  0  0  0  0
    1.8413   -0.0239   -0.1832 C   0  0  2  0  0  0  0  0  0  0  0  0
    2.8262   -1.1216   -0.6546 C   0  0  2  0  0  0  0  0  0  0  0  0
    0.5853   -0.4458   -0.9852 C   0  0  1  0  0  0  0  0  0  0  0  0
    1.9698   -2.4088   -0.6727 C   0  0  0  0  0  0  0  0  0  0  0  0
    0.5004   -1.9530   -0.7373 C   0  0  0  0  0  0  0  0  0  0  0  0
    2.2334    1.4060   -0.6073 C   0  0  0  0  0  0  0  0  0  0  0  0
    4.1081   -1.2739    0.1516 C   0  0  2  0  0  0  0  0  0  0  0  0
   -0.5699    0.4815   -0.7213 C   0  0  0  0  0  0  0  0  0  0  0  0
    1.6320   -0.0722    1.3522 C   0  0  0  0  0  0  0  0  0  0  0  0
    1.0722    2.3970   -0.4090 C   0  0  0  0  0  0  0  0  0  0  0  0
   -0.2460    1.9257   -1.0449 C   0  0  0  0  0  0  0  0  0  0  0  0
    4.8887    0.0570    0.1629 C   0  0  0  0  0  0  0  0  0  0  0  0
    4.9441   -2.4301   -0.4071 C   0  0  0  0  0  0  0  0  0  0  0  0
   -1.7703    0.1050   -0.2590 C   0  0  0  0  0  0  0  0  0  0  0  0
    6.3566   -0.0906    0.5764 C   0  0  0  0  0  0  0  0  0  0  0  0
   -2.8537    1.0281   -0.0287 C   0  0  0  0  0  0  0  0  0  0  0  0
    7.0536    1.2731    0.6379 C   0  0  0  0  0  0  0  0  0  0  0  0
   -4.0549    0.6522    0.4339 C   0  0  0  0  0  0  0  0  0  0  0  0
   -4.3866   -0.7860    0.7253 C   0  0  0  0  0  0  0  0  0  0  0  0
   -5.1734    1.6385    0.6667 C   0  0  0  0  0  0  0  0  0  0  0  0
   -6.8555   -0.2604    0.2657 C   0  0  0  0  0  0  0  0  0  0  0  0
   -5.6639   -1.2072   -0.0096 C   0  0  2  0  0  0  0  0  0  0  0  0
   -6.4657    1.2011   -0.0381 C   0  0  2  0  0  0  0  0  0  0  0  0
    8.5094    1.1572    1.0728 C   0  0  0  0  0  0  0  0  0  0  0  0
   -7.4144   -0.3949    1.6878 C   0  0  0  0  0  0  0  0  0  0  0  0
    3.1031   -0.9095   -1.6992 H   0  0  0  0  0  0  0  0  0  0  0  0
    0.8028   -0.3360   -2.0612 H   0  0  0  0  0  0  0  0  0  0  0  0
    2.1186   -3.0231    0.2227 H   0  0  0  0  0  0  0  0  0  0  0  0
    2.2190   -3.0255   -1.5436 H   0  0  0  0  0  0  0  0  0  0  0  0
   -0.0447   -2.4674   -1.5357 H   0  0  0  0  0  0  0  0  0  0  0  0
    0.0008   -2.1900    0.2087 H   0  0  0  0  0  0  0  0  0  0  0  0
    2.5253    1.4172   -1.6653 H   0  0  0  0  0  0  0  0  0  0  0  0
    3.0724    1.8121   -0.0440 H   0  0  0  0  0  0  0  0  0  0  0  0
    3.8731   -1.5380    1.1905 H   0  0  0  0  0  0  0  0  0  0  0  0
    2.4915    0.3371    1.8915 H   0  0  0  0  0  0  0  0  0  0  0  0
    0.7600    0.5086    1.6686 H   0  0  0  0  0  0  0  0  0  0  0  0
    1.4769   -1.0919    1.7194 H   0  0  0  0  0  0  0  0  0  0  0  0
    0.9148    2.5717    0.6623 H   0  0  0  0  0  0  0  0  0  0  0  0
    1.3521    3.3665   -0.8388 H   0  0  0  0  0  0  0  0  0  0  0  0
   -0.1458    2.0019   -2.1364 H   0  0  0  0  0  0  0  0  0  0  0  0
   -1.0017    2.6602   -0.7712 H   0  0  0  0  0  0  0  0  0  0  0  0
    4.4365    0.7349    0.8896 H   0  0  0  0  0  0  0  0  0  0  0  0
    4.8615    0.5248   -0.8284 H   0  0  0  0  0  0  0  0  0  0  0  0
    5.3032   -2.2082   -1.4180 H   0  0  0  0  0  0  0  0  0  0  0  0
    4.3767   -3.3646   -0.4520 H   0  0  0  0  0  0  0  0  0  0  0  0
    5.8097   -2.6429    0.2284 H   0  0  0  0  0  0  0  0  0  0  0  0
   -1.9008   -0.9476   -0.0585 H   0  0  0  0  0  0  0  0  0  0  0  0
    6.8902   -0.7173   -0.1461 H   0  0  0  0  0  0  0  0  0  0  0  0
    6.4188   -0.5800    1.5557 H   0  0  0  0  0  0  0  0  0  0  0  0
   -2.7292    2.0842   -0.2249 H   0  0  0  0  0  0  0  0  0  0  0  0
    7.0114    1.7350   -0.3562 H   0  0  0  0  0  0  0  0  0  0  0  0
    6.5228    1.9334    1.3333 H   0  0  0  0  0  0  0  0  0  0  0  0
   -3.6195   -1.5214    0.4852 H   0  0  0  0  0  0  0  0  0  0  0  0
   -4.5307   -0.8989    1.8081 H   0  0  0  0  0  0  0  0  0  0  0  0
   -5.3477    1.7196    1.7462 H   0  0  0  0  0  0  0  0  0  0  0  0
   -4.8872    2.6368    0.3135 H   0  0  0  0  0  0  0  0  0  0  0  0
   -7.6636   -0.5577   -0.4171 H   0  0  0  0  0  0  0  0  0  0  0  0
   -5.4647   -1.2007   -1.0895 H   0  0  0  0  0  0  0  0  0  0  0  0
   -7.2840    1.8708    0.2515 H   0  0  0  0  0  0  0  0  0  0  0  0
    8.5835    0.7026    2.0659 H   0  0  0  0  0  0  0  0  0  0  0  0
    8.9725    2.1484    1.1046 H   0  0  0  0  0  0  0  0  0  0  0  0
   -6.6704   -0.1509    2.4515 H   0  0  0  0  0  0  0  0  0  0  0  0
   -7.7648   -1.4151    1.8751 H   0  0  0  0  0  0  0  0  0  0  0  0
   -8.2698    0.2747    1.8284 H   0  0  0  0  0  0  0  0  0  0  0  0
   -5.2307   -3.1092    0.0961 H   0  0  0  0  0  0  0  0  0  0  0  0
   -6.0879    2.2762   -1.6286 H   0  0  0  0  0  0  0  0  0  0  0  0
   10.1477    0.3096    0.4641 H   0  0  0  0  0  0  0  0  0  0  0  0
  1 25  1  0  0  0  0
  1 68  1  0  0  0  0
  2 26  1  0  0  0  0
  2 69  1  0  0  0  0
  3 27  1  0  0  0  0
  3 70  1  0  0  0  0
  4  5  1  0  0  0  0
  4  6  1  0  0  0  0
  4  9  1  0  0  0  0
  4 12  1  0  0  0  0
  5  7  1  0  0  0  0
  5 10  1  0  0  0  0
  5 29  1  0  0  0  0
  6  8  1  0  0  0  0
  6 11  1  0  0  0  0
  6 30  1  0  0  0  0
  7  8  1  0  0  0  0
  7 31  1  0  0  0  0
  7 32  1  0  0  0  0
  8 33  1  0  0  0  0
  8 34  1  0  0  0  0
  9 13  1  0  0  0  0
  9 35  1  0  0  0  0
  9 36  1  0  0  0  0
 10 15  1  0  0  0  0
 10 16  1  0  0  0  0
 10 37  1  0  0  0  0
 11 14  1  0  0  0  0
 11 17  2  0  0  0  0
 12 38  1  0  0  0  0
 12 39  1  0  0  0  0
 12 40  1  0  0  0  0
 13 14  1  0  0  0  0
 13 41  1  0  0  0  0
 13 42  1  0  0  0  0
 14 43  1  0  0  0  0
 14 44  1  0  0  0  0
 15 18  1  0  0  0  0
 15 45  1  0  0  0  0
 15 46  1  0  0  0  0
 16 47  1  0  0  0  0
 16 48  1  0  0  0  0
 16 49  1  0  0  0  0
 17 19  1  0  0  0  0
 17 50  1  0  0  0  0
 18 20  1  0  0  0  0
 18 51  1  0  0  0  0
 18 52  1  0  0  0  0
 19 21  2  0  0  0  0
 19 53  1  0  0  0  0
 20 27  1  0  0  0  0
 20 54  1  0  0  0  0
 20 55  1  0  0  0  0
 21 22  1  0  0  0  0
 21 23  1  0  0  0  0
 22 25  1  0  0  0  0
 22 56  1  0  0  0  0
 22 57  1  0  0  0  0
 23 26  1  0  0  0  0
 23 58  1  0  0  0  0
 23 59  1  0  0  0  0
 24 25  1  0  0  0  0
 24 26  1  0  0  0  0
 24 28  1  0  0  0  0
 24 60  1  0  0  0  0
 25 61  1  0  0  0  0
 26 62  1  0  0  0  0
 27 63  1  0  0  0  0
 27 64  1  0  0  0  0
 28 65  1  0  0  0  0
 28 66  1  0  0  0  0
 28 67  1  0  0  0  0
M  END
> <PUBCHEM_COMPOUND_CID>
71463466

> <PUBCHEM_CONFORMER_RMSD>
1

> <PUBCHEM_CONFORMER_DIVERSEORDER>
2
24
66
31
79
45
69
26
14
98
35
101
89
93
53
41
82
10
75
80
76
103
20
65
86
87
74
17
56
16
94
42
7
77
61
39
67
37
63
58
102
71
5
34
54
62
27
38
48
30
47
6
60
29
15
64
13
78
84
11
18
105
92
12
72
33
44
23
43
40
28
68
88
85
32
90
21
73
8
81
25
51
9
3
59
96
55
95
4
83
36
1
22
57
49
52
100
46
99
50
70
97
19
91
104

> <PUBCHEM_MMFF94_PARTIAL_CHARGES>
19
1 -0.68
11 -0.28
14 0.14
17 -0.15
19 -0.15
2 -0.68
21 -0.28
22 0.14
23 0.14
25 0.28
26 0.28
27 0.28
3 -0.68
50 0.15
53 0.15
6 0.14
68 0.4
69 0.4
70 0.4

> <PUBCHEM_EFFECTIVE_ROTOR_COUNT>
8.2

> <PUBCHEM_PHARMACOPHORE_FEATURES>
11
1 1 acceptor
1 1 donor
1 16 hydrophobe
1 2 acceptor
1 2 donor
1 3 acceptor
1 3 donor
4 10 15 18 20 hydrophobe
5 4 5 6 7 8 rings
6 21 22 23 24 25 26 rings
6 4 6 9 11 13 14 rings

> <PUBCHEM_HEAVY_ATOM_COUNT>
28

> <PUBCHEM_ATOM_DEF_STEREO_COUNT>
4

> <PUBCHEM_ATOM_UDEF_STEREO_COUNT>
2

> <PUBCHEM_BOND_DEF_STEREO_COUNT>
1

> <PUBCHEM_BOND_UDEF_STEREO_COUNT>
0

> <PUBCHEM_ISOTOPIC_ATOM_COUNT>
0

> <PUBCHEM_COMPONENT_COUNT>
1

> <PUBCHEM_CACTVS_TAUTO_COUNT>
1

> <PUBCHEM_CONFORMER_ID>
0442722A00000002

> <PUBCHEM_MMFF94_ENERGY>
77.6261

> <PUBCHEM_FEATURE_SELFOVERLAP>
55.89

> <PUBCHEM_SHAPE_FINGERPRINT>
10 15 18410571782334531346
10165383 225 18202279222233286264
106641 1 18411138056254932256
10670039 82 10519994746821200011
10835480 77 18339074887856414917
11315181 36 17846497024845490385
11456790 92 18060126623816367048
12236239 1 17632292329204820437
12516196 113 18408605838000299053
12596602 18 18060423473531259235
13540713 4 18047748205408768220
14251764 18 18333731338506537464
14341114 176 18271250430601334475
14849402 71 18059855112193910424
15301273 46 18412544289231007580
15461852 350 17060048264461304357
15728490 51 18341893017287678894
15849732 13 18342457058590015980
17093844 174 17968094201804724173
21130935 74 18339929203684876931
21150785 3 14620793812667699672
21365058 27 16630808820223488870
21521721 280 17988924474898624618
22224240 67 18412822495637444186
23559900 14 18411416216250431681
23576562 1 11095295548415826064
24771293 8 18413673500178373068
3178227 256 18412267259171239848
3383291 50 17676779751161083083
4073 2 18411423882429678827
4093350 32 16988567884184512966
4340502 62 18202284706189228366
4403749 210 18340761620065556919
5104073 3 18268712710076507218
5758199 1 18059857268351290714
59682541 35 18260828224628084456
59755656 520 12607396677053677581
67856867 119 18339083791334090933
9689198 14 16988844995163331160
9953998 17 18342741827906694147

> <PUBCHEM_SHAPE_MULTIPOLES>
558.62
23.35
2.35
1.13
9.23
0.69
-0.12
-2.78
-8.49
0.41
0.45
-0.54
-0.13
1.44

> <PUBCHEM_SHAPE_SELFOVERLAP>
1142.577

> <PUBCHEM_SHAPE_VOLUME>
323.2

> <PUBCHEM_COORDINATE_TYPE>
2
5
10

$$$$
